"""
 Based on Styrene (2015)

"""

units(length='cm', time='s', quantity='mol', act_energy='cal/mol')

ideal_gas(name='gas',
          elements="Kr C H O Ar",
          species="""C12H10   C8H8     nC8H7    iC8H7    C8H6     C6H6
                     C6H5     cisC6H4  oC6H4    C6H3     C6H2     C4H4
                     bC4H4    C4H3     C4H2     C2H3     C2H2     C2H
                     H2       H        Kr       Ar""",
          reactions='all',
          initial_state=state(temperature=300.0, pressure=OneAtm))

#-------------------------------------------------------------------------------
# Species data
#-------------------------------------------------------------------------------

species(name='C12H10',
        atoms='C:12 H:10',
        thermo=(NASA([200.00, 1000.00],
                     [ 1.94600056E-01,  5.35259888E-02,  8.55000841E-05,
                      -1.63903525E-07,  7.29975666E-11,  1.90021492E+04,
                       2.72148992E+01]),
                NASA([1000.00, 6000.00],
                     [ 2.28963620E+01,  3.68453189E-02, -1.35016357E-05,
                       2.20802787E-09, -1.33358137E-13,  1.07395923E+04,
                      -1.00509573E+02])),
        note='biphenylg8/00')

species(name='C8H8',
        atoms='C:8 H:8',
        thermo=(NASA([200.00, 1000.00],
                     [ 1.12656107E+00,  3.17044880E-02,  7.38511452E-05,
                      -1.29131757E-07,  5.65307288E-11,  1.57676346E+04,
                       2.25936971E+01]),
                NASA([1000.00, 6000.00],
                     [ 1.55820120E+01,  2.66093018E-02, -9.56144870E-06,
                       1.54378205E-09, -9.24814823E-14,  1.03197319E+04,
                      -5.98622481E+01])),
        note='styreneT12/10')

species(name='nC8H7',
        atoms='C:8 H:7',
        thermo=(NASA([200.00, 1000.00],
                     [ 2.78678850E-01,  4.12517677E-02,  4.27417783E-05,
                      -9.66212597E-08,  4.47818574E-11,  4.52024803E+04,
                       2.70544015E+01]),
                NASA([1000.00, 6000.00],
                     [ 1.60668682E+01,  2.35522834E-02, -8.47352807E-06,
                       1.36928204E-09, -8.20829942E-14,  3.98109546E+04,
                      -6.01469382E+01])),
        note='n-styrylT12/07')

species(name='iC8H7',
        atoms='C:8 H:7',
        thermo=(NASA([200.00, 1000.00],
                     [ 5.95576002E-01,  4.31715811E-02,  3.39695049E-05,
                      -8.55153149E-08,  4.02634981E-11,  4.19756314E+04,
                       2.57011560E+01]),
                NASA([1000.00, 6000.00],
                     [ 1.61678053E+01,  2.34869894E-02, -8.45465097E-06,
                       1.36664033E-09, -8.19389188E-14,  3.67356818E+04,
                      -5.98456163E+01])),
        note='i-styrylT12/07')

species(name='C8H6',
        atoms='C:8 H:6',
        thermo=(NASA([200.00, 1000.00],
                     [-2.74707918E+00,  7.78284438E-02, -6.69709932E-05,
                       2.37972496E-08, -8.43279765E-13,  3.61131008E+04,
                       3.54221257E+01]),
                NASA([1000.00, 6000.00],
                     [ 1.63582907E+01,  2.11974105E-02, -7.65817215E-06,
                       1.24134505E-09, -7.45327960E-14,  3.10375340E+04,
                      -6.22520227E+01])),
        note='PhenylacetylT12/06')

species(name='C6H6',
        atoms='C:6 H:6',
        thermo=(NASA([200.00, 1000.00],
                     [ 5.04818632E-01,  1.85020642E-02,  7.38345881E-05,
                      -1.18135741E-07,  5.07210429E-11,  8.55247913E+03,
                       2.16412893E+01]),
                NASA([1000.00, 6000.00],
                     [ 1.10809576E+01,  2.07176746E-02, -7.52145991E-06,
                       1.22320984E-09, -7.36091279E-14,  4.30641035E+03,
                      -4.00413310E+01])),
        note='benzeneg6/01')

species(name='C6H5',
        atoms='C:6 H:5',
        thermo=(NASA([200.00, 1000.00],
                     [ 4.91024498E-01,  1.72669813E-02,  7.02556406E-05,
                      -1.13389805E-07,  4.89202543E-11,  3.92340510E+04,
                       2.42505364E+01]),
                NASA([1000.00, 6000.00],
                     [ 1.09540673E+01,  1.82072569E-02, -6.63331157E-06,
                       1.08125690E-09, -6.51736617E-14,  3.51098413E+04,
                      -3.64320659E+01])),
        note='phenylradiT07/10')

species(name='cisC6H4',
        atoms='C:6 H:4',
        thermo=(NASA([200.00, 1000.00],
                     [-4.36293187E-01,  6.12732353E-02, -7.68492543E-05,
                       5.18458875E-08, -1.40527024E-11,  6.10383325E+04,
                       2.53964956E+01]),
                NASA([1000.00, 6000.00],
                     [ 1.22388926E+01,  1.36279082E-02, -4.80715345E-06,
                       7.66746640E-10, -4.55210640E-14,  5.81401255E+04,
                      -3.70117245E+01])),
        note='cis-1,5A02/05')

species(name='oC6H4',
        atoms='C:6 H:4',
        thermo=(NASA([200.00, 1000.00],
                     [ 7.21604591E-01,  2.47976151E-02,  3.16372209E-05,
                      -6.53230986E-08,  2.96082142E-11,  5.39797980E+04,
                       2.16733825E+01]),
                NASA([1000.00, 6000.00],
                     [ 1.05707063E+01,  1.56860613E-02, -5.68267148E-06,
                       9.22956737E-10, -5.54966417E-14,  5.04976657E+04,
                      -3.32563927E+01])),
        note='o-benzyneA02/05')

species(name='C6H3',
        atoms='C:6 H:3',
        thermo=(NASA([200.00, 1000.00],
                     [ 8.25343066E-01,  2.54304386E-02,  2.14951562E-05,
                      -5.23692607E-08,  2.43576096E-11,  8.61930921E+04,
                       2.24157823E+01]),
                NASA([1000.00, 6000.00],
                     [ 1.07791236E+01,  1.29752918E-02, -4.74348788E-06,
                       7.75171464E-10, -4.68121821E-14,  8.28078760E+04,
                      -3.23817342E+01])),
        note='RadicalCyA02/05')

species(name='C6H2',
        atoms='C:6 H:2',
        thermo=(NASA([200.00, 1000.00],
                     [-5.94408010E-01,  7.46613698E-02, -1.35848115E-04,
                       1.22198283E-07, -4.17697584E-11,  8.21259933E+04,
                       2.21178523E+01]),
                NASA([1000.00, 6000.00],
                     [ 1.25237986E+01,  8.78597449E-03, -3.13663802E-06,
                       5.04347263E-10, -3.01110703E-14,  7.97838798E+04,
                      -3.88501187E+01])),
        note='triacetylenT8/10')

species(name='C4H4',
        atoms='C:4 H:4',
        thermo=(NASA([200.00, 1000.00],
                     [ 1.66450475E+00,  1.28883888E-02,  3.00130083E-05,
                      -5.09682379E-08,  2.22098957E-11,  5.06798795E+04,
                       1.59431761E+01]),
                NASA([1000.00, 6000.00],
                     [ 6.15799403E+00,  1.38046928E-02, -4.89065781E-06,
                       7.82030467E-10, -4.64999095E-14,  4.88765056E+04,
                      -1.02472098E+01])),
        note='CYbutadieneT10/06')

species(name='bC4H4',
        atoms='C:4 H:4',
        thermo=(NASA([200.00, 1000.00],
                     [ 1.37368786E+00,  2.88801256E-02, -1.46863874E-05,
                      -3.91045446E-09,  4.78133572E-12,  3.30633344E+04,
                       1.75941274E+01]),
                NASA([1000.00, 6000.00],
                     [ 7.98456038E+00,  1.20558816E-02, -4.23587475E-06,
                       6.73646140E-10, -3.99059864E-14,  3.11993029E+04,
                      -1.67958975E+01])),
        note='1-butene-3T06/04')

species(name='C4H3',
        atoms='C:4 H:3',
        thermo=(NASA([200.00, 1000.00],
                     [ 5.54263934E-01,  3.86185425E-02, -4.70818280E-05,
                       3.06240321E-08, -7.90588421E-12,  6.37974910E+04,
                       2.10542043E+01]),
                NASA([1000.00, 6000.00],
                     [ 8.44631306E+00,  9.07291526E-03, -3.18681201E-06,
                       5.06725048E-10, -3.00149855E-14,  6.20007365E+04,
                      -1.77938854E+01])),
        note='E-1ylRadicalT06/04')

species(name='C4H2',
        atoms='C:4 H:2',
        thermo=(NASA([200.00, 1000.00],
                     [-5.02389168E-01,  5.25164044E-02, -9.29945578E-05,
                       8.17206506E-08, -2.73537313E-11,  5.38574848E+04,
                       2.06780532E+01]),
                NASA([1000.00, 6000.00],
                     [ 8.65615648E+00,  6.74465042E-03, -2.36868410E-06,
                       3.76553454E-10, -2.22995205E-14,  5.22459295E+04,
                      -2.18462806E+01])),
        note='diacetyleneT2/16')

species(name='C2H3',
        atoms='C:2 H:3',
        thermo=(NASA([200.00, 1000.00],
                     [ 3.12502174E+00,  2.35136801E-03,  2.36803425E-05,
                      -3.35092391E-08,  1.39444106E-11,  3.45243318E+04,
                       8.81537658E+00]),
                NASA([1000.00, 6000.00],
                     [ 4.37211201E+00,  7.46869010E-03, -2.64715570E-06,
                       4.22753257E-10, -2.44958401E-14,  3.38051964E+04,
                       4.28771726E-01])),
        note='vinylradiATcT3E')

species(name='C2H2',
        atoms='C:2 H:2',
        thermo=(NASA([200.00, 1000.00],
                     [ 6.26263508E-01,  2.47263532E-02, -3.89555894E-05,
                       3.16484975E-08, -9.87351295E-12,  2.64555796E+04,
                       1.46968104E+01]),
                NASA([1000.00, 6000.00],
                     [ 4.66165760E+00,  4.88861739E-03, -1.61257351E-06,
                       2.48284097E-10, -1.39736824E-14,  2.57695270E+04,
                      -4.01062351E+00])),
        note='acetyleneATcT3E')

species(name='C2H',
        atoms='C:2 H:1',
        thermo=(NASA([200.00, 1000.00],
                     [ 2.89867676E+00,  1.32988489E-02, -2.80733327E-05,
                       2.89484755E-08, -1.07502351E-11,  6.70616050E+04,
                       6.18547632E+00]),
                NASA([1000.00, 6000.00],
                     [ 3.66270248E+00,  3.82492252E-03, -1.36632500E-06,
                       2.13455040E-10, -1.23216848E-14,  6.71683790E+04,
                       3.92205792E+00])),
        note='T5/10')

species(name='H2',
        atoms='H:2',
        thermo=(NASA([200.00, 1000.00],
                     [ 2.37694204E+00,  7.73916922E-03, -1.88735073E-05,
                       1.95517114E-08, -7.17095663E-12, -9.21173081E+02,
                       5.47184736E-01]),
                NASA([1000.00, 6000.00],
                     [ 2.90207649E+00,  8.68992581E-04, -1.65864430E-07,
                       1.90851899E-11, -9.31121789E-16, -7.97948726E+02,
                      -8.45591320E-01])),
        note='REFELEMENTATcT3E')

species(name='H',
        atoms='H:1',
        thermo=(NASA([200.00, 1000.00],
                     [ 2.49975925E+00,  6.73824499E-07,  1.11807261E-09,
                      -3.70192126E-12,  2.14233822E-15,  2.54737665E+04,
                      -4.45574009E-01]),
                NASA([1000.00, 6000.00],
                     [ 2.49985211E+00,  2.34582548E-07, -1.16171641E-10,
                       2.25708298E-14, -1.52992005E-18,  2.54738024E+04,
                      -4.45864645E-01])),
        note='ATcT3E')

species(name='Kr',
        atoms='Kr:1',
        thermo=(NASA([200.00, 1000.00],
                     [ 2.50000000E+00,  0.00000000E+00,  0.00000000E+00,
                       0.00000000E+00,  0.00000000E+00, -7.45375000E+02,
                       5.49095651E+00]),
                NASA([1000.00, 6000.00],
                     [ 2.50001436E+00, -2.78190281E-08,  1.74071629E-11,
                      -4.31400304E-15,  3.66743374E-19, -7.45380247E+02,
                       5.49087778E+00])),
        note='REFELEMENTg8/97')

species(name='Ar',
        atoms='Ar:1',
        thermo=(NASA([200.00, 1000.00],
                     [ 2.49988611E+00,  2.13037960E-07,  8.97320772E-10,
                      -2.31395752E-12,  1.30201393E-15, -7.45354481E+02,
                       4.38024367E+00]),
                NASA([1000.00, 6000.00],
                     [ 2.49989176E+00,  1.56134837E-07, -7.76108557E-11,
                       1.52928085E-14, -1.05304493E-18, -7.45328403E+02,
                       4.38029835E+00])),
        note='REFELEMENTATcT3E')

#-------------------------------------------------------------------------------
# Reaction data
#-------------------------------------------------------------------------------

# Reaction 1
reaction('C8H8 <=> C6H6 + C2H2', [3.412000e+11, 0.0, 58420.0])

# Reaction 2
reaction('C8H8 <=> C8H6 + H2', [2.427000e+03, 0.0, 0.0])

# Reaction 3
reaction('C8H8 <=> bC4H4 + C2H2 + C2H2', [2.630000e+03, 0.0, 0.0])

# Reaction 4
reaction('C8H8 <=> nC8H7 + H', [1.000000e+16, 0.0, 110500.0])

# Reaction 5
reaction('iC8H7 + H <=> C8H8', [1.109000e+16, -0.82, 690.0])

# Reaction 6
reaction('C8H8 + H <=> nC8H7 + H2', [2.535000e+07, 1.93, 12951.0])

# Reaction 7
reaction('C8H8 + H <=> iC8H7 + H2', [1.268000e+07, 1.93, 10460.0])

# Reaction 8
reaction('iC8H7 <=> C6H5 + C2H2', [1.000000e+05, 0.0, 0.0])

# Reaction 9
reaction('nC8H7 <=> C6H5 + C2H2', [1.349000e+14, 0.34, 45710.0])

# Reaction 10
reaction('C6H5 <=> oC6H4 + H', [1.567000e+74, -17.2, 115640.0])

# Reaction 11
reaction('C6H5 + H <=> C6H6', [3.126000e+49, -10.2, 22665.0])

# Reaction 12
reaction('oC6H4 <=> C4H2 + C2H2', [1.175000e+63, -14.27, 104700.0])

# Reaction 13
reaction('C6H6 <=> C4H4 + C2H2', [1.288000e+14, 0.0, 88000.0])

# Reaction 14
reaction('C4H4 <=> C2H2 + C2H2', [1.300000e+15, 0.0, 82500.0])

# Reaction 15
three_body_reaction('oC6H4 + M <=> C6H3 + H + M', [4.467000e+19, -1.0, 60000.0])

# Reaction 16
reaction('C6H3 <=> C6H2 + H', [2.291000e+10, 0.0, 36100.0])

# Reaction 17
reaction('C6H6 + H <=> C6H5 + H2', [1.500000e+11, 0.0, 10000.0])

# Reaction 18
reaction('C6H5 <=> C2H2 + C4H3', [2.999000e+14, 0.0, 67000.0])

# Reaction 19
reaction('C6H5 + C6H5 <=> oC6H4 + C6H6', [1.706000e-03, 4.57, -24027.0])

# Reaction 20
reaction('C6H5 + C6H5 <=> cisC6H4 + C6H6', [4.285000e-04, 4.57, -24027.0])

# Reaction 21
reaction('C6H5 + C6H5 <=> C12H10', [3.221000e+22, -2.81, 20037.0])
